*version 9.2 1141904924
u 304
U? 8
R? 23
C? 6
V? 5
? 3
@libraries
@analysis
.TRAN 1 0 0 0
+0 1u
+1 4m
+3 10u
.OP 0 
@targets
@attributes
@translators
a 0 u 13 0 0 0 hln 100 PCBOARDS=PCB
a 0 u 13 0 0 0 hln 100 PSPICE=PSPICE
a 0 u 13 0 0 0 hln 100 XILINX=XILINX
@setup
unconnectedPins 0
connectViaLabel 0
connectViaLocalLabels 0
NoStim4ExtIFPortsWarnings 1
AutoGenStim4ExtIFPorts 1
@index
pageloc 1 0 17359 
@status
n 0 122:07:27:20:13:58;1661609638 e 
s 2832 122:07:27:20:14:01;1661609641 e 
*page 1 0 1520 970 iB
@ports
port 43 GND_EARTH 90 30 u
port 48 GND_EARTH 20 240 h
port 36 GND_EARTH 250 220 h
port 37 GND_EARTH 440 240 h
port 40 GND_EARTH 610 80 h
port 41 GND_EARTH 830 90 h
port 42 GND_EARTH 940 280 h
port 38 GND_EARTH 430 440 h
port 39 GND_EARTH 470 640 h
port 44 GND_EARTH 950 420 h
port 277 bubble 870 330 h
a 1 x 3 0 0 0 hcn 100 LABEL=POS
port 278 bubble 870 520 u
a 1 x 3 0 0 0 hcn 100 LABEL=NEG
port 284 bubble 150 180 u
a 1 x 3 0 0 0 hcn 100 LABEL=NEG
port 286 bubble 150 120 h
a 1 x 3 0 0 0 hcn 100 LABEL=POS
port 281 bubble 320 200 u
a 1 x 3 0 0 0 hcn 100 LABEL=POS
port 288 bubble 320 140 h
a 1 x 3 0 0 0 hcn 100 LABEL=NEG
port 280 bubble 520 220 u
a 1 x 3 0 0 0 hcn 100 LABEL=POS
port 287 bubble 520 160 h
a 1 x 3 0 0 0 hcn 100 LABEL=NEG
port 279 bubble 520 420 u
a 1 x 3 0 0 0 hcn 100 LABEL=POS
port 291 bubble 520 360 h
a 1 x 3 0 0 0 hcn 100 LABEL=NEG
port 285 bubble 560 620 u
a 1 x 3 0 0 0 hcn 100 LABEL=POS
port 292 bubble 560 560 h
a 1 x 3 0 0 0 hcn 100 LABEL=NEG
port 282 bubble 750 200 u
a 1 x 3 0 0 0 hcn 100 LABEL=POS
port 289 bubble 750 140 h
a 1 x 3 0 0 0 hcn 100 LABEL=NEG
port 283 bubble 990 180 u
a 1 x 3 0 0 0 hcn 100 LABEL=POS
port 290 bubble 990 120 h
a 1 x 3 0 0 0 hcn 100 LABEL=NEG
@parts
part 13 R 210 150 h
a 0 sp 0 0 0 10 hlb 100 PART=R
a 0 s 0:13 0 0 0 hln 100 PKGTYPE=RC05
a 0 s 0:13 0 0 0 hln 100 GATE=
a 0 a 0:13 0 0 0 hln 100 PKGREF=R5
a 0 ap 9 0 15 0 hln 100 REFDES=R5
part 15 R 500 90 h
a 0 sp 0 0 0 10 hlb 100 PART=R
a 0 s 0:13 0 0 0 hln 100 PKGTYPE=RC05
a 0 s 0:13 0 0 0 hln 100 GATE=
a 0 a 0:13 0 0 0 hln 100 PKGREF=R7
a 0 ap 9 0 15 0 hln 100 REFDES=R7
part 16 R 630 60 h
a 0 sp 0 0 0 10 hlb 100 PART=R
a 0 s 0:13 0 0 0 hln 100 PKGTYPE=RC05
a 0 s 0:13 0 0 0 hln 100 GATE=
a 0 a 0:13 0 0 0 hln 100 PKGREF=R8
a 0 ap 9 0 15 0 hln 100 REFDES=R8
part 21 R 640 190 h
a 0 sp 0 0 0 10 hlb 100 PART=R
a 0 s 0:13 0 0 0 hln 100 PKGTYPE=RC05
a 0 s 0:13 0 0 0 hln 100 GATE=
a 0 a 0:13 0 0 0 hln 100 PKGREF=R13
a 0 ap 9 0 15 0 hln 100 REFDES=R13
part 14 R 390 170 h
a 0 sp 0 0 0 10 hlb 100 PART=R
a 0 s 0:13 0 0 0 hln 100 PKGTYPE=RC05
a 0 s 0:13 0 0 0 hln 100 GATE=
a 0 a 0:13 0 0 0 hln 100 PKGREF=R6
a 0 ap 9 0 15 0 hln 100 REFDES=R6
part 32 c 550 470 h
a 0 sp 0 0 0 10 hlb 100 PART=c
a 0 s 0:13 0 0 0 hln 100 PKGTYPE=CK05
a 0 s 0:13 0 0 0 hln 100 GATE=
a 0 a 0:13 0 0 0 hln 100 PKGREF=C2
a 0 ap 9 0 15 0 hln 100 REFDES=C2
part 23 R 640 590 h
a 0 sp 0 0 0 10 hlb 100 PART=R
a 0 s 0:13 0 0 0 hln 100 PKGTYPE=RC05
a 0 s 0:13 0 0 0 hln 100 GATE=
a 0 a 0:13 0 0 0 hln 100 PKGREF=R15
a 0 ap 9 0 15 0 hln 100 REFDES=R15
part 2 uA741 110 130 h
a 0 sp 11 0 0 70 hcn 100 PART=uA741
a 0 s 0:13 0 0 0 hln 100 PKGTYPE=DIP8
a 0 s 0:13 0 0 0 hln 100 GATE=
a 0 a 0:13 0 0 0 hln 100 PKGREF=U1
a 0 ap 9 0 14 0 hln 100 REFDES=U1
part 4 uA741 480 210 U
a 0 sp 11 0 0 70 hcn 100 PART=uA741
a 0 s 0:13 0 0 0 hln 100 PKGTYPE=DIP8
a 0 s 0:13 0 0 0 hln 100 GATE=
a 0 a 0:13 0 0 0 hln 100 PKGREF=U3
a 0 ap 9 0 14 0 hln 100 REFDES=U3
part 3 uA741 280 190 U
a 0 sp 11 0 0 70 hcn 100 PART=uA741
a 0 s 0:13 0 0 0 hln 100 PKGTYPE=DIP8
a 0 s 0:13 0 0 0 hln 100 GATE=
a 0 a 0:13 0 0 0 hln 100 PKGREF=U2
a 0 ap 9 0 14 0 hln 100 REFDES=U2
part 7 uA741 710 190 U
a 0 sp 11 0 0 70 hcn 100 PART=uA741
a 0 s 0:13 0 0 0 hln 100 PKGTYPE=DIP8
a 0 s 0:13 0 0 0 hln 100 GATE=
a 0 a 0:13 0 0 0 hln 100 PKGREF=U6
a 0 ap 9 0 14 0 hln 100 REFDES=U6
part 8 uA741 950 170 U
a 0 sp 11 0 0 70 hcn 100 PART=uA741
a 0 s 0:13 0 0 0 hln 100 PKGTYPE=DIP8
a 0 s 0:13 0 0 0 hln 100 GATE=
a 0 a 0:13 0 0 0 hln 100 PKGREF=U7
a 0 ap 9 0 14 0 hln 100 REFDES=U7
part 6 uA741 520 610 U
a 0 sp 11 0 0 70 hcn 100 PART=uA741
a 0 s 0:13 0 0 0 hln 100 PKGTYPE=DIP8
a 0 s 0:13 0 0 0 hln 100 GATE=
a 0 a 0:13 0 0 0 hln 100 PKGREF=U5
a 0 ap 9 0 14 0 hln 100 REFDES=U5
part 5 uA741 480 410 U
a 0 sp 11 0 0 70 hcn 100 PART=uA741
a 0 s 0:13 0 0 0 hln 100 PKGTYPE=DIP8
a 0 s 0:13 0 0 0 hln 100 GATE=
a 0 a 0:13 0 0 0 hln 100 PKGREF=U4
a 0 ap 9 0 14 0 hln 100 REFDES=U4
part 22 R 640 390 h
a 0 sp 0 0 0 10 hlb 100 PART=R
a 0 s 0:13 0 0 0 hln 100 PKGTYPE=RC05
a 0 s 0:13 0 0 0 hln 100 GATE=
a 0 a 0:13 0 0 0 hln 100 PKGREF=R14
a 0 ap 9 0 15 0 hln 100 REFDES=R14
part 9 R 40 130 h
a 0 u 13 0 15 25 hln 100 VALUE=4.7k
a 0 sp 0 0 0 10 hlb 100 PART=R
a 0 s 0:13 0 0 0 hln 100 PKGTYPE=RC05
a 0 s 0:13 0 0 0 hln 100 GATE=
a 0 a 0:13 0 0 0 hln 100 PKGREF=R1
a 0 ap 9 0 15 0 hln 100 REFDES=R1
part 11 R 40 170 h
a 0 u 13 0 15 25 hln 100 VALUE=4.7k
a 0 sp 0 0 0 10 hlb 100 PART=R
a 0 s 0:13 0 0 0 hln 100 PKGTYPE=RC05
a 0 s 0:13 0 0 0 hln 100 GATE=
a 0 a 0:13 0 0 0 hln 100 PKGREF=R3
a 0 ap 9 0 15 0 hln 100 REFDES=R3
part 12 R 110 230 h
a 0 u 13 0 15 25 hln 100 VALUE=4.7k
a 0 sp 0 0 0 10 hlb 100 PART=R
a 0 s 0:13 0 0 0 hln 100 PKGTYPE=RC05
a 0 s 0:13 0 0 0 hln 100 GATE=
a 0 a 0:13 0 0 0 hln 100 PKGREF=R4
a 0 ap 9 0 15 0 hln 100 REFDES=R4
part 10 R 90 100 v
a 0 u 13 0 17 33 hln 100 VALUE=4.7k
a 0 sp 0 0 0 10 hlb 100 PART=R
a 0 s 0:13 0 0 0 hln 100 PKGTYPE=RC05
a 0 s 0:13 0 0 0 hln 100 GATE=
a 0 a 0:13 0 0 0 hln 100 PKGREF=R2
a 0 ap 9 0 15 0 hln 100 REFDES=R2
part 19 R 510 280 h
a 0 u 13 0 15 25 hln 100 VALUE=2.37k
a 0 sp 0 0 0 10 hlb 100 PART=R
a 0 s 0:13 0 0 0 hln 100 PKGTYPE=RC05
a 0 s 0:13 0 0 0 hln 100 GATE=
a 0 a 0:13 0 0 0 hln 100 PKGREF=R11
a 0 ap 9 0 15 0 hln 100 REFDES=R11
part 31 c 510 320 h
a 0 u 13 0 15 25 hln 100 VALUE=1u
a 0 sp 0 0 0 10 hlb 100 PART=c
a 0 s 0:13 0 0 0 hln 100 PKGTYPE=CK05
a 0 s 0:13 0 0 0 hln 100 GATE=
a 0 a 0:13 0 0 0 hln 100 PKGREF=C1
a 0 ap 9 0 15 0 hln 100 REFDES=C1
part 33 c 450 570 h
a 0 u 13 0 15 25 hln 100 VALUE=0.3u
a 0 sp 0 0 0 10 hlb 100 PART=c
a 0 s 0:13 0 0 0 hln 100 PKGTYPE=CK05
a 0 s 0:13 0 0 0 hln 100 GATE=
a 0 a 0:13 0 0 0 hln 100 PKGREF=C3
a 0 ap 9 0 15 0 hln 100 REFDES=C3
part 20 R 390 570 h
a 0 u 13 0 15 25 hln 100 VALUE=59
a 0 sp 0 0 0 10 hlb 100 PART=R
a 0 s 0:13 0 0 0 hln 100 PKGTYPE=RC05
a 0 s 0:13 0 0 0 hln 100 GATE=
a 0 a 0:13 0 0 0 hln 100 PKGREF=R12
a 0 ap 9 0 15 0 hln 100 REFDES=R12
part 17 R 730 60 h
a 0 u 13 0 15 25 hln 100 VALUE=2k
a 0 sp 0 0 0 10 hlb 100 PART=R
a 0 s 0:13 0 0 0 hln 100 PKGTYPE=RC05
a 0 s 0:13 0 0 0 hln 100 GATE=
a 0 a 0:13 0 0 0 hln 100 PKGREF=R9
a 0 ap 9 0 15 0 hln 100 REFDES=R9
part 25 R 890 170 h
a 0 u 13 0 15 25 hln 100 VALUE=4.7k
a 0 sp 0 0 0 10 hlb 100 PART=R
a 0 s 0:13 0 0 0 hln 100 PKGTYPE=RC05
a 0 s 0:13 0 0 0 hln 100 GATE=
a 0 a 0:13 0 0 0 hln 100 PKGREF=R17
a 0 ap 9 0 15 0 hln 100 REFDES=R17
part 24 R 830 170 h
a 0 u 13 0 15 25 hln 100 VALUE=4.7k
a 0 sp 0 0 0 10 hlb 100 PART=R
a 0 s 0:13 0 0 0 hln 100 PKGTYPE=RC05
a 0 s 0:13 0 0 0 hln 100 GATE=
a 0 a 0:13 0 0 0 hln 100 PKGREF=R16
a 0 ap 9 0 15 0 hln 100 REFDES=R16
part 26 R 860 60 h
a 0 u 13 0 15 25 hln 100 VALUE=4.7k
a 0 sp 0 0 0 10 hlb 100 PART=R
a 0 s 0:13 0 0 0 hln 100 PKGTYPE=RC05
a 0 s 0:13 0 0 0 hln 100 GATE=
a 0 a 0:13 0 0 0 hln 100 PKGREF=R18
a 0 ap 9 0 15 0 hln 100 REFDES=R18
part 34 c 880 220 d
a 0 u 13 0 15 25 hln 100 VALUE=1u
a 0 sp 0 0 0 10 hlb 100 PART=c
a 0 s 0:13 0 0 0 hln 100 PKGTYPE=CK05
a 0 s 0:13 0 0 0 hln 100 GATE=
a 0 a 0:13 0 0 0 hln 100 PKGREF=C4
a 0 ap 9 0 15 0 hln 100 REFDES=C4
part 35 c 940 220 d
a 0 u 13 0 15 25 hln 100 VALUE=1u
a 0 sp 0 0 0 10 hlb 100 PART=c
a 0 s 0:13 0 0 0 hln 100 PKGTYPE=CK05
a 0 s 0:13 0 0 0 hln 100 GATE=
a 0 a 0:13 0 0 0 hln 100 PKGREF=C5
a 0 ap 9 0 15 0 hln 100 REFDES=C5
part 45 VDC 870 350 h
a 1 u 13 0 -11 18 hcn 100 DC=15V
a 0 sp 0 0 22 37 hln 100 PART=VDC
a 0 a 0:13 0 0 0 hln 100 PKGREF=V1
a 1 ap 9 0 24 7 hcn 100 REFDES=V1
part 46 VDC 870 450 h
a 1 u 13 0 -11 18 hcn 100 DC=15V
a 0 sp 0 0 22 37 hln 100 PART=VDC
a 0 a 0:13 0 0 0 hln 100 PKGREF=V2
a 1 ap 9 0 24 7 hcn 100 REFDES=V2
part 27 R 970 60 h
a 0 u 13 0 15 25 hln 100 VALUE=9.3k
a 0 sp 0 0 0 10 hlb 100 PART=R
a 0 s 0:13 0 0 0 hln 100 PKGTYPE=RC05
a 0 s 0:13 0 0 0 hln 100 GATE=
a 0 a 0:13 0 0 0 hln 100 PKGREF=R19
a 0 ap 9 0 15 0 hln 100 REFDES=R19
part 30 R 300 90 h
a 0 sp 0 0 0 10 hlb 100 PART=R
a 0 s 0:13 0 0 0 hln 100 PKGTYPE=RC05
a 0 s 0:13 0 0 0 hln 100 GATE=
a 0 a 0:13 0 0 0 hln 100 PKGREF=R22
a 0 ap 9 0 15 0 hln 100 REFDES=R22
a 0 u 13 0 15 25 hln 100 VALUE=20k
part 28 R 390 370 h
a 0 sp 0 0 0 10 hlb 100 PART=R
a 0 s 0:13 0 0 0 hln 100 PKGTYPE=RC05
a 0 s 0:13 0 0 0 hln 100 GATE=
a 0 a 0:13 0 0 0 hln 100 PKGREF=R20
a 0 ap 9 0 15 0 hln 100 REFDES=R20
a 0 u 13 0 15 25 hln 100 VALUE=30k
part 29 R 540 510 h
a 0 sp 0 0 0 10 hlb 100 PART=R
a 0 s 0:13 0 0 0 hln 100 PKGTYPE=RC05
a 0 s 0:13 0 0 0 hln 100 GATE=
a 0 a 0:13 0 0 0 hln 100 PKGREF=R21
a 0 ap 9 0 15 0 hln 100 REFDES=R21
a 0 u 13 0 15 25 hln 100 VALUE=2.5k
part 303 vsin 20 180 h
a 0 a 0:13 0 0 0 hln 100 PKGREF=V4
a 1 ap 9 0 20 10 hcn 100 REFDES=V4
a 1 u 0 0 0 0 hcn 100 DC=0
a 1 u 0 0 0 0 hcn 100 AC=0
a 1 u 0 0 0 0 hcn 100 VOFF=0
a 1 u 0 0 0 0 hcn 100 VAMPL=1
a 1 u 0 0 0 0 hcn 100 FREQ=1k
part 1 titleblk 1520 970 h
a 1 s 13 0 350 10 hcn 100 PAGESIZE=B
a 1 s 13 0 180 60 hcn 100 PAGETITLE=
a 1 s 13 0 340 95 hrn 100 PAGECOUNT=1
a 1 s 13 0 300 95 hrn 100 PAGENO=1
part 301 nodeMarker 1080 150 h
a 0 s 0 0 0 0 hln 100 PROBEVAR=
a 0 s 0 0 0 0 hln 100 PROBEVAR=
a 0 s 0 0 0 0 hln 100 PROBEVAR=
a 0 a 0 0 4 22 hlb 100 LABEL=1
part 302 nodeMarker 20 130 h
a 0 s 0 0 0 0 hln 100 PROBEVAR=
a 0 s 0 0 0 0 hln 100 PROBEVAR=
a 0 s 0 0 0 0 hln 100 PROBEVAR=
a 0 a 0 0 4 22 hlb 100 LABEL=2
@conn
w 50
a 0 up 0:33 0 0 0 hln 100 V=
s 90 30 90 60 49
a 0 up 33 0 92 45 hlt 100 V=
w 52
a 0 up 0:33 0 0 0 hln 100 V=
s 90 100 90 130 51
a 0 up 33 0 92 115 hlt 100 V=
s 90 130 110 130 53
s 90 130 80 130 55
w 64
a 0 up 0:33 0 0 0 hln 100 V=
s 80 170 90 170 63
s 90 170 110 170 67
s 90 170 90 230 68
a 0 up 33 0 92 200 hlt 100 V=
s 90 230 110 230 70
w 73
a 0 up 0:33 0 0 0 hln 100 V=
s 150 230 200 230 72
s 200 230 200 150 74
a 0 up 33 0 202 190 hlt 100 V=
s 200 150 190 150 76
s 200 150 210 150 78
w 81
a 0 up 0:33 0 0 0 hln 100 V=
s 250 150 260 150 80
s 260 150 280 150 84
s 260 150 260 90 82
a 0 up 33 0 262 120 hlt 100 V=
s 260 90 300 90 85
w 88
a 0 up 0:33 0 0 0 hln 100 V=
s 280 190 250 190 87
s 250 190 250 220 89
a 0 up 33 0 252 205 hlt 100 V=
w 101
a 0 up 0:33 0 0 0 hln 100 V=
s 480 210 440 210 100
a 0 up 33 0 460 209 hct 100 V=
s 440 210 440 240 102
w 94
a 0 up 0:33 0 0 0 hln 100 V=
s 430 170 450 170 93
s 450 170 480 170 106
s 450 170 450 90 104
a 0 up 33 0 452 130 hlt 100 V=
s 450 90 500 90 107
w 110
a 0 up 0:33 0 0 0 hln 100 V=
s 540 90 580 90 109
s 580 90 580 190 111
a 0 up 33 0 582 140 hlt 100 V=
s 580 190 560 190 113
s 580 190 640 190 115
w 126
a 0 up 0:33 0 0 0 hln 100 V=
s 630 60 610 60 125
s 610 60 610 80 127
a 0 up 33 0 612 70 hlt 100 V=
w 120
a 0 up 0:33 0 0 0 hln 100 V=
s 710 150 690 150 119
s 690 150 690 60 121
a 0 up 33 0 692 105 hlt 100 V=
s 690 60 670 60 123
s 690 60 730 60 129
w 132
a 0 up 0:33 0 0 0 hln 100 V=
s 770 60 810 60 131
s 810 60 810 170 133
a 0 up 33 0 812 115 hlt 100 V=
s 810 170 790 170 135
s 810 170 830 170 137
w 144
a 0 up 0:33 0 0 0 hln 100 V=
s 950 130 920 130 143
s 920 130 920 60 145
a 0 up 33 0 922 95 hlt 100 V=
s 920 60 970 60 147
s 920 60 900 60 155
w 158
a 0 up 0:33 0 0 0 hln 100 V=
s 860 60 830 60 157
s 830 60 830 90 159
a 0 up 33 0 832 75 hlt 100 V=
w 140
a 0 up 0:33 0 0 0 hln 100 V=
s 870 170 880 170 139
s 880 170 890 170 163
s 880 170 880 220 161
a 0 up 33 0 882 195 hlt 100 V=
w 142
a 0 up 0:33 0 0 0 hln 100 V=
s 930 170 940 170 141
s 940 170 950 170 172
s 940 170 940 220 170
a 0 up 33 0 942 195 hlt 100 V=
w 174
a 0 up 0:33 0 0 0 hln 100 V=
s 940 250 940 280 173
a 0 up 33 0 942 265 hlt 100 V=
w 191
a 0 up 0:33 0 0 0 hln 100 V=
s 680 390 700 390 190
s 680 190 700 190 117
s 700 190 710 190 194
s 700 390 700 190 192
s 700 390 700 590 195
a 0 up 33 0 702 490 hlt 100 V=
s 700 590 680 590 197
w 209
a 0 up 0:33 0 0 0 hln 100 V=
s 430 570 450 570 215
a 0 up 33 0 440 569 hct 100 V=
w 96
a 0 up 0:33 0 0 0 hln 100 V=
s 340 90 380 90 95
s 360 170 380 170 91
s 380 170 390 170 99
s 380 90 380 170 97
s 380 370 390 370 221
s 380 570 380 370 210
s 380 570 390 570 220
s 380 370 380 170 217
a 0 up 33 0 382 270 hlt 100 V=
w 232
a 0 up 0:33 0 0 0 hln 100 V=
s 480 410 430 410 231
a 0 up 33 0 455 409 hct 100 V=
s 430 410 430 440 233
w 241
a 0 up 0:33 0 0 0 hln 100 V=
s 580 470 630 470 240
s 580 510 630 510 201
s 640 590 630 590 199
s 630 590 600 590 205
s 630 510 630 590 203
a 0 up 33 0 632 550 hlt 100 V=
s 630 470 630 510 242
w 236
a 0 up 0:33 0 0 0 hln 100 V=
s 550 470 490 470 235
s 520 570 490 570 206
s 490 570 480 570 239
s 490 470 490 510 237
s 490 510 490 570 246
a 0 up 33 0 492 540 hlt 100 V=
s 540 510 490 510 244
w 248
a 0 up 0:33 0 0 0 hln 100 V=
s 520 610 470 610 247
a 0 up 33 0 495 609 hct 100 V=
s 470 610 470 640 249
w 267
a 0 up 0:33 0 0 0 hln 100 V=
s 870 390 870 410 266
s 870 410 870 450 270
s 870 410 950 410 268
a 0 up 33 0 910 409 hct 100 V=
s 950 410 950 420 271
w 274
a 0 up 0:33 0 0 0 hln 100 V=
s 870 350 870 330 273
a 0 up 33 0 872 340 hlt 100 V=
w 276
a 0 up 0:33 0 0 0 hln 100 V=
s 870 490 870 520 275
a 0 up 33 0 872 505 hlt 100 V=
w 176
a 0 up 0:33 0 0 0 hln 100 V=
s 430 370 450 370 175
s 450 370 480 370 179
s 450 370 450 320 177
s 450 320 510 320 180
s 450 320 450 280 293
s 450 280 510 280 295
a 0 up 33 0 480 279 hct 100 V=
w 298
a 0 up 0:33 0 0 0 hln 100 V=
s 550 280 610 280 297
s 540 320 610 320 182
s 610 320 610 390 184
a 0 up 33 0 612 355 hlt 100 V=
s 610 390 560 390 186
s 610 390 640 390 188
s 610 280 610 320 299
w 263
a 0 up 0:33 0 0 0 hln 100 V=
s 1080 150 1080 690 257
s 1060 150 1080 150 251
s 1060 60 1060 150 151
s 1060 150 1030 150 153
s 1060 310 1060 150 168
s 1010 60 1060 60 149
s 880 310 1060 310 166
s 880 250 880 310 164
s 1080 690 40 690 259
a 0 up 33 0 560 689 hct 100 V=
s 40 690 40 170 264
w 62
a 0 up 0:33 0 0 0 hln 100 V=
s 20 220 20 240 61
a 0 up 33 0 22 230 hlt 100 V=
w 58
a 0 up 0:33 0 0 0 hln 100 V=
s 40 130 20 130 57
s 20 130 20 180 59
a 0 up 33 0 22 155 hlt 100 V=
@junction
j 90 60
+ p 10 2
+ w 50
j 90 30
+ s 43
+ w 50
j 90 100
+ p 10 1
+ w 52
j 110 130
+ p 2 +
+ w 52
j 80 130
+ p 9 2
+ w 52
j 90 130
+ w 52
+ w 52
j 40 130
+ p 9 1
+ w 58
j 20 240
+ s 48
+ w 62
j 80 170
+ p 11 2
+ w 64
j 110 170
+ p 2 -
+ w 64
j 90 170
+ w 64
+ w 64
j 110 230
+ p 12 1
+ w 64
j 150 230
+ p 12 2
+ w 73
j 190 150
+ p 2 OUT
+ w 73
j 210 150
+ p 13 1
+ w 73
j 200 150
+ w 73
+ w 73
j 280 150
+ p 3 -
+ w 81
j 250 150
+ p 13 2
+ w 81
j 260 150
+ w 81
+ w 81
j 300 90
+ p 30 1
+ w 81
j 280 190
+ p 3 +
+ w 88
j 250 220
+ s 36
+ w 88
j 480 170
+ p 4 -
+ w 94
j 430 170
+ p 14 2
+ w 94
j 340 90
+ p 30 2
+ w 96
j 390 170
+ p 14 1
+ w 96
j 360 170
+ p 3 OUT
+ w 96
j 380 170
+ w 96
+ w 96
j 480 210
+ p 4 +
+ w 101
j 440 240
+ s 37
+ w 101
j 450 170
+ w 94
+ w 94
j 500 90
+ p 15 1
+ w 94
j 540 90
+ p 15 2
+ w 110
j 560 190
+ p 4 OUT
+ w 110
j 640 190
+ p 21 1
+ w 110
j 580 190
+ w 110
+ w 110
j 710 150
+ p 7 -
+ w 120
j 670 60
+ p 16 2
+ w 120
j 630 60
+ p 16 1
+ w 126
j 610 80
+ s 40
+ w 126
j 730 60
+ p 17 1
+ w 120
j 690 60
+ w 120
+ w 120
j 770 60
+ p 17 2
+ w 132
j 790 170
+ p 7 OUT
+ w 132
j 830 170
+ p 24 1
+ w 132
j 810 170
+ w 132
+ w 132
j 890 170
+ p 25 1
+ w 140
j 870 170
+ p 24 2
+ w 140
j 950 170
+ p 8 +
+ w 142
j 930 170
+ p 25 2
+ w 142
j 950 130
+ p 8 -
+ w 144
j 970 60
+ p 27 1
+ w 144
j 900 60
+ p 26 2
+ w 144
j 920 60
+ w 144
+ w 144
j 860 60
+ p 26 1
+ w 158
j 830 90
+ s 41
+ w 158
j 880 220
+ p 34 1
+ w 140
j 880 170
+ w 140
+ w 140
j 880 250
+ p 34 2
+ w 263
j 1010 60
+ p 27 2
+ w 263
j 1030 150
+ p 8 OUT
+ w 263
j 1060 150
+ w 263
+ w 263
j 940 220
+ p 35 1
+ w 142
j 940 170
+ w 142
+ w 142
j 940 250
+ p 35 2
+ w 174
j 940 280
+ s 42
+ w 174
j 480 370
+ p 5 -
+ w 176
j 450 370
+ w 176
+ w 176
j 510 320
+ p 31 1
+ w 176
j 610 390
+ w 298
+ w 298
j 680 390
+ p 22 2
+ w 191
j 710 190
+ p 7 +
+ w 191
j 680 190
+ p 21 2
+ w 191
j 700 190
+ w 191
+ w 191
j 700 390
+ w 191
+ w 191
j 680 590
+ p 23 2
+ w 191
j 630 590
+ w 241
+ w 241
j 430 570
+ p 20 2
+ w 209
j 450 570
+ p 33 1
+ w 209
j 390 570
+ p 20 1
+ w 96
j 380 370
+ w 96
+ w 96
j 480 410
+ p 5 +
+ w 232
j 430 440
+ s 38
+ w 232
j 550 470
+ p 32 1
+ w 236
j 480 570
+ p 33 2
+ w 236
j 520 570
+ p 6 -
+ w 236
j 490 570
+ w 236
+ w 236
j 580 470
+ p 32 2
+ w 241
j 580 510
+ p 29 2
+ w 241
j 600 590
+ p 6 OUT
+ w 241
j 640 590
+ p 23 1
+ w 241
j 630 510
+ w 241
+ w 241
j 540 510
+ p 29 1
+ w 236
j 490 510
+ w 236
+ w 236
j 520 610
+ p 6 +
+ w 248
j 470 640
+ s 39
+ w 248
j 40 170
+ p 11 1
+ w 263
j 870 390
+ p 45 -
+ w 267
j 870 450
+ p 46 +
+ w 267
j 870 410
+ w 267
+ w 267
j 950 420
+ s 44
+ w 267
j 870 350
+ p 45 +
+ w 274
j 870 490
+ p 46 -
+ w 276
j 870 330
+ s 277
+ w 274
j 870 520
+ s 278
+ w 276
j 520 420
+ s 279
+ p 5 V+
j 520 220
+ s 280
+ p 4 V+
j 320 200
+ s 281
+ p 3 V+
j 750 200
+ s 282
+ p 7 V+
j 150 180
+ s 284
+ p 2 V-
j 560 620
+ s 285
+ p 6 V+
j 990 180
+ s 283
+ p 8 V+
j 150 120
+ s 286
+ p 2 V+
j 520 160
+ s 287
+ p 4 V-
j 320 140
+ s 288
+ p 3 V-
j 750 140
+ s 289
+ p 7 V-
j 990 120
+ s 290
+ p 8 V-
j 520 360
+ s 291
+ p 5 V-
j 560 560
+ s 292
+ p 6 V-
j 450 320
+ w 176
+ w 176
j 510 280
+ p 19 1
+ w 176
j 550 280
+ p 19 2
+ w 298
j 540 320
+ p 31 2
+ w 298
j 560 390
+ p 5 OUT
+ w 298
j 640 390
+ p 22 1
+ w 298
j 610 320
+ w 298
+ w 298
j 1080 150
+ p 301 pin1
+ w 263
j 20 130
+ p 302 pin1
+ w 58
j 430 370
+ p 28 2
+ w 176
j 390 370
+ p 28 1
+ w 96
j 20 220
+ p 303 -
+ w 62
j 20 180
+ p 303 +
+ w 58
@attributes
a 0 s 0:13 0 0 0 hln 100 PAGETITLE=
a 0 s 0:13 0 0 0 hln 100 PAGENO=1
a 0 s 0:13 0 0 0 hln 100 PAGESIZE=B
a 0 s 0:13 0 0 0 hln 100 PAGECOUNT=1
@graphics
